[TITLE]
New Scenario							

[JUNCTIONS]
;ID              	Elev        	Demand      	Pattern         
 1               	20          	0           	                	;			
 10001           	17          	0           	                	;			
 10002           	70          	0           	                	;			
 10003           	23          	0           	                	;			
 2               	18          	0           	                	;			
 3               	31          	0           	                	;			
 4               	66          	0           	                	;			
 5               	50          	0           	                	;			
 6               	50          	0           	                	;			
 7               	46          	0           	                	;			
 8               	8           	0           	                	;			
 9               	7           	0           	                	;			
 11              	40          	0           	                	;			
 12              	40          	0           	                	;			
 14              	40          	0           	                	;			
 15              	40          	0           	                	;			
 16              	53          	0           	                	;			
 17              	50          	0           	                	;			
 18              	40          	0           	                	;			
 20              	1           	0           	                	;			
 21              	13          	0           	                	;			
 23              	6           	0           	                	;			
 24              	24          	0           	                	;			
 25              	6           	0           	                	;			
 26              	23          	0           	                	;			
 27              	15          	0           	                	;			
 28              	14.10       	0           	                	;			
 31              	17          	0           	                	;			
 32              	18          	0           	                	;			
 33              	15          	0           	                	;			
 34              	27          	0           	                	;			
 35              	15          	0           	                	;			
 36              	11          	0           	                	;			
 37              	54          	0           	                	;			
 38              	71          	0           	                	;			
 39              	9           	0           	                	;			
 40              	8           	0           	                	;			
 41              	8           	0           	                	;			
 42              	6           	0           	                	;			
 43              	6           	0           	                	;			
 44              	6           	0           	                	;			
 45              	6           	0           	                	;			
 46              	6           	0           	                	;			
 47              	6           	0           	                	;			
 48              	6           	0           	                	;			
 49              	5           	0           	                	;			
 50              	11          	0           	                	;			
 51              	31          	0           	                	;			
 52              	31          	0           	TOU1            	;			
 53              	8           	0           	                	;			
 54              	7           	0           	                	;			
 55              	12          	0           	                	;			
 56              	20          	0           	                	;			
 57              	17          	0           	                	;			
 58              	38          	0           	                	;			
 59              	33          	0           	                	;			
 60              	46          	0           	                	;			
 61              	11          	0           	                	;			
 62              	14          	0           	                	;			
 63              	23          	0           	                	;			
 64              	14          	0           	                	;			
 65              	2           	0           	                	;			
 66              	7           	0           	                	;			
 67              	8           	0           	                	;			
 68              	4           	0           	                	;Coulement export			
 69              	18          	0           	                	;			
 70              	7           	0           	                	;			
 71              	5           	0           	                	;			
 72              	23          	0           	                	;			
 73              	23          	0           	                	;			
 74              	10          	0           	                	;			
 75              	23          	0           	                	;			
 76              	23          	0           	                	;			
 77              	22          	0           	                	;			
 78              	3           	0           	                	;			
 79              	6           	0           	                	;			
 80              	10          	0           	                	;			
 81              	5           	0           	                	;			
 82              	6           	0           	                	;			
 83              	6           	0           	                	;			
 84              	8           	0           	                	;			
 85              	2           	0           	                	;			
 86              	4           	0           	                	;			
 87              	4           	0           	                	;			
 88              	3           	0           	                	;			
 89              	5           	0           	                	;			
 90              	3           	0           	                	;			
 91              	10          	0           	                	;			
 92              	14          	0           	                	;			
 93              	3           	0           	                	;			
 94              	3           	0           	                	;			
 95              	3           	0           	                	;			
 96              	4           	0           	                	;			
 97              	6           	0           	                	;			
 98              	6           	0           	                	;			
 99              	6           	0           	                	;			
 100             	3           	0           	                	;			
 102             	10          	0           	                	;			
 103             	2           	0           	                	;			
 104             	25          	0           	                	;			
 105             	18          	0           	                	;			
 106             	6           	0           	                	;			
 107             	10          	0           	                	;			
 108             	52          	0           	                	;			
 109             	31          	0           	                	;			
 110             	3           	0           	                	;			
 111             	3           	0           	                	;			
 112             	12          	0           	                	;			
 113             	10          	0           	                	;			
 114             	10          	0           	                	;			
 115             	24          	0           	                	;			
 116             	10          	0           	                	;			
 117             	35          	0           	                	;			
 118             	34          	0           	                	;			
 119             	11          	0           	                	;			
 120             	39          	0           	                	;			
 121             	36          	0           	                	;			
 122             	31          	0           	                	;			
 123             	29          	0           	                	;			
 124             	29          	0           	                	;			
 125             	48          	0           	                	;Noeud fictif MB			
 127             	35          	0           	                	;			
 128             	29          	0           	                	;			
 129             	8           	0           	                	;			
 130             	0           	0           	                	;			
 131             	31          	0           	                	;			
 132             	39          	0           	                	;			
 133             	2           	0           	                	;			
 134             	10          	0           	                	;			
 135             	11          	0           	                	;			
 136             	11          	0           	                	;			
 137             	11          	0           	                	;			
 138             	37          	0           	                	;			
 139             	90          	0           	                	;			
 140             	6           	0           	                	;			
 141             	22          	0           	                	;			
 142             	102.9       	0           	                	;			
 143             	18          	0           	                	;			
 144             	8           	0           	                	;			
 145             	32          	0           	                	;			
 146             	29          	0           	                	;			
 147             	32          	0           	                	;			
 148             	35          	0           	                	;			
 149             	37          	0           	                	;			
 150             	8           	0           	                	;			
 151             	32          	0           	                	;			
 152             	3           	0           	                	;			
 153             	1           	0           	                	;			
 154             	5           	0           	                	;			
 155             	4           	0           	                	;			
 156             	15          	0           	                	;			
 157             	20          	0           	                	;			
 158             	23          	0           	                	;			
 159             	17          	0           	                	;			
 160             	48          	0           	                	;			
 161             	10          	0           	                	;			
 162             	3           	0           	                	;			
 163             	7           	0           	                	;			
 164             	123         	0           	                	;			
 165             	7           	0           	                	;			
 166             	34          	0           	                	;			
 167             	36          	0           	                	;			
 168             	37          	0           	                	;			
 169             	37          	0           	                	;			
 170             	11          	0           	                	;			
 171             	124         	0           	                	;			
 172             	12          	0           	                	;			
 173             	12          	0           	                	;			
 174             	123         	0           	                	;			
 175             	5           	0           	                	;			
 176             	8           	0           	                	;			
 177             	9           	0           	                	;			
 178             	76          	0           	                	;			
 179             	3           	0           	                	;			
 180             	31          	0           	                	;			
 181             	36          	0           	                	;			
 182             	9           	0           	                	;			
 183             	10          	0           	                	;			
 184             	78          	0           	                	;			
 185             	13          	0           	                	;			
 186             	78          	0           	                	;			
 187             	10          	0           	                	;			
 188             	37          	0           	                	;			
 189             	3           	0           	                	;			
 190             	6           	0           	                	;			
 191             	4           	0           	                	;			
 192             	76          	0           	                	;			
 193             	59          	0           	                	;			
 194             	72          	0           	                	;			
 195             	50.8        	0           	                	;			
 196             	60          	0           	                	;			
 197             	50          	0           	                	;			
 198             	10          	0           	                	;			
 199             	27          	0           	                	;			
 200             	30          	0           	                	;			
 201             	30          	0           	                	;			
 202             	27          	0           	                	;			
 203             	17          	0           	                	;			
 204             	71          	0           	                	;			
 205             	53          	0           	                	;			
 206             	55          	0           	                	;			
 207             	60          	0           	                	;			
 208             	57          	0           	                	;			
 209             	59          	0           	                	;			
 210             	32          	0           	                	;			
 211             	71          	0           	                	;			
 212             	71          	0           	                	;			
 213             	81          	0           	                	;			
 214             	98          	0           	                	;			
 215             	56.85       	0           	                	;			
 216             	46          	0           	                	;			
 217             	71          	0           	                	;			
 218             	63          	0           	                	;			
 219             	29          	0           	                	;			
 220             	54          	0           	                	;			
 221             	10          	0           	                	;			
 222             	16          	0           	                	;			
 223             	16          	0           	                	;			
 224             	91          	0           	                	;			
 225             	91          	0           	                	;			
 226             	25          	0           	                	;			
 227             	36          	0           	                	;			
 228             	64          	0           	                	;			
 229             	25          	0           	                	;			
 230             	64          	0           	                	;			
 231             	11          	0           	                	;			
 232             	18          	0           	                	;			
 233             	44          	0           	                	;			
 234             	10          	0           	                	;			
 235             	38          	0           	                	;			
 236             	79          	0           	                	;			
 237             	9           	0           	                	;			
 238             	72.2        	0           	                	;			
 240             	3           	0           	                	;			
 241             	7           	0           	                	;			
 242             	24          	0           	                	;			
 243             	36          	0           	                	;			
 244             	61          	0           	                	;			
 245             	5           	0           	                	;			
 246             	19          	0           	                	;			
 247             	0           	0           	                	;			
 250             	25          	0           	                	;			
 251             	83.5        	0           	                	;			
 252             	8           	0           	                	;			
 254             	7           	0           	                	;			
 255             	5           	0           	                	;			
 256             	48          	0           	                	;			
 257             	100         	0           	                	;			
 258             	16          	0           	                	;			
 259             	47          	0           	                	;			
 260             	1           	0           	                	;			
 261             	15          	0           	                	;			
 262             	83.80       	0           	                	;			
 263             	53          	0           	                	;			
 265             	35          	0           	                	;			
 266             	0           	0           	                	;			
 267             	0           	0           	                	;			
 268             	80          	0           	                	;			
 269             	83          	0           	                	;			
 270             	50          	0           	                	;			
 271             	37          	0           	                	;			
 272             	45          	15          	DOM1            	;Marsac Sur Don
 273             	37          	0           	                	;			
 274             	30          	0           	                	;			
 275             	45          	0           	                	;			
 276             	80          	0           	                	;			
 277             	74.3        	0           	                	;			
 278             	47          	0           	                	;			
 279             	52          	0           	                	;			
 280             	29          	0           	                	;			
 281             	21          	0           	                	;			
 285             	17          	0           	                	;			
 286             	33          	0           	                	;			
 287             	8           	0           	                	;			
 289             	85          	0           	                	;			
 292             	19          	0           	                	;			
 293             	78          	0           	                	;			
 294             	49          	0           	                	;			
 295             	27          	0           	                	;			
 297             	11          	0           	                	;			
 298             	16          	0           	                	;			
 299             	81          	0           	                	;			
 300             	76          	0           	                	;			
 302             	73          	0           	                	;			
 304             	77          	0           	                	;			
 305             	25          	0           	                	;			
 306             	20          	0           	                	;			
 307             	75          	0           	                	;			
 309             	81          	0           	                	;			
 311             	74          	0           	                	;			
 312             	30          	0           	                	;			
 313             	65          	0           	                	;			
 314             	42          	0           	                	;			
 316             	41          	0           	                	;			
 318             	25          	0           	                	;			
 319             	41          	0           	                	;			
 321             	24          	0           	                	;			
 322             	19          	0           	                	;			
 323             	59          	0           	                	;			
 324             	58          	0           	                	;			
 325             	60          	0           	                	;			
 328             	36          	0           	                	;			
 329             	30          	0           	                	;			
 331             	66          	0           	                	;			
 332             	66          	0           	                	;			
 333             	66          	0           	                	;			
 334             	44          	0           	                	;			
 335             	29          	0           	                	;			
 337             	27          	0           	                	;			
 338             	29          	0           	                	;			
 341             	57          	0           	                	;			
 343             	51          	0           	                	;			
 344             	50          	0           	                	;			
 346             	52          	0           	                	;			
 348             	40          	0           	                	;			
 351             	30          	0           	                	;			
 352             	30          	0           	                	;			
 353             	51          	0           	                	;			
 354             	52          	0           	                	;			
 355             	26          	0           	                	;			
 356             	55          	0           	                	;			
 359             	10          	0           	                	;			
 360             	16          	0           	                	;			
 362             	34          	0           	                	;			
 364             	23          	0           	                	;			
 365             	47          	0           	                	;			
 366             	36          	0           	                	;			
 368             	8           	0           	                	;			
 371             	56          	0           	                	;			
 372             	39          	0           	                	;			
 373             	43          	0           	                	;			
 374             	19          	0           	                	;			
 376             	55          	0           	                	;			
 377             	33          	0           	                	;			
 378             	45          	0           	                	;			
 379             	6           	0           	                	;			
 380             	21          	0           	                	;			
 381             	48          	0           	                	;			
 386             	28          	0           	                	;			
 387             	51          	0           	                	;			
 388             	12          	0           	                	;			
 389             	47          	0           	                	;			
 390             	51          	0           	                	;			
 392             	46          	0           	                	;			
 393             	28          	0           	                	;			
 394             	21          	0           	                	;			
 396             	39          	0           	                	;			
 399             	33          	0           	                	;			
 400             	54          	0           	                	;			
 402             	45          	0           	                	;			
 403             	35          	0           	                	;			
 404             	27          	0           	                	;			
 405             	20          	0           	                	;			
 407             	34          	0           	                	;			
 408             	11          	0           	                	;			
 409             	11          	0           	                	;			
 410             	5           	0           	                	;			
 411             	29          	0           	                	;			
 412             	44          	0           	                	;			
 413             	41          	0           	                	;			
 414             	16          	0           	                	;			
 415             	31          	0           	                	;			
 416             	39          	0           	                	;			
 417             	8           	0           	                	;			
 418             	7           	0           	                	;			
 419             	8           	0           	                	;			
 421             	18          	0           	                	;			
 422             	29          	0           	                	;			
 423             	22          	0           	                	;			
 424             	32          	0           	                	;			
 425             	27          	0           	                	;			
 426             	17          	0           	                	;			
 427             	29          	0           	                	;			
 428             	31          	0           	                	;			
 430             	28          	0           	                	;			
 431             	40          	0           	                	;			
 433             	27          	0           	                	;			
 434             	45          	0           	                	;			
 436             	28          	0           	                	;			
 437             	32          	0           	                	;			
 439             	6           	0           	                	;			
 440             	28          	0           	                	;			
 442             	25          	0           	                	;			
 443             	37          	0           	                	;			
 446             	9           	0           	                	;			
 447             	8           	0           	                	;			
 448             	10          	0           	                	;			
 449             	8           	0           	                	;			
 450             	21          	0           	                	;			
 451             	26          	0           	                	;			
 452             	4           	0           	                	;			
 453             	32          	0           	                	;			
 454             	13          	0           	                	;			
 455             	5           	0           	                	;			
 456             	68          	0           	                	;			
 457             	60          	0           	                	;			
 458             	41          	0           	                	;			
 459             	10          	0           	                	;			
 460             	45          	0           	                	;			
 461             	8           	0           	                	;			
 462             	35          	0           	                	;			
 463             	36          	0           	                	;			
 464             	36          	0           	                	;			
 465             	41          	0           	                	;			
 466             	8           	0           	                	;			
 468             	5           	0           	                	;			
 469             	10          	0           	                	;			
 470             	8           	0           	                	;			
 471             	34          	0           	                	;			
 472             	10          	0           	                	;			
 474             	5           	0           	                	;			
 475             	42          	0           	                	;			
 476             	26          	0           	                	;			
 477             	16          	0           	                	;			
 478             	28          	0           	                	;			
 479             	20          	0           	                	;			
 481             	14          	0           	                	;			
 482             	27          	0           	                	;			
 483             	28          	0           	                	;			
 486             	29          	0           	                	;			
 488             	23          	0           	                	;			
 489             	23          	0           	                	;			
 492             	35          	0           	                	;			
 493             	8           	0           	                	;			
 494             	27          	0           	                	;			
 495             	9           	0           	                	;			
 496             	10          	0           	                	;			
 497             	46          	0           	                	;			
 498             	41          	0           	                	;			
 499             	6           	0           	                	;			
 500             	6           	0           	                	;			
 503             	2           	0           	                	;			
 504             	66          	0           	                	;			
 506             	5           	0           	                	;			
 507             	72          	0           	                	;			
 508             	72          	0           	                	;			
 509             	8           	0           	                	;			
 510             	67          	0           	                	;			
 512             	54          	0           	                	;			
 514             	11          	0           	                	;			
 515             	14          	0           	                	;			
 516             	23          	0           	                	;			
 517             	12          	0           	                	;			
 518             	14          	0           	                	;			
 519             	11          	0           	                	;			
 520             	18          	0           	                	;			
 521             	24          	0           	                	;			
 522             	20          	0           	                	;			
 523             	29          	0           	                	;			
 524             	70          	0           	                	;			
 525             	31          	0           	                	;			
 527             	48          	0           	                	;			